/*--------------------------------*- C++ -*----------------------------------*\
  =========                 |
  \\      /  F ield         | OpenFOAM: The Open Source CFD Toolbox
   \\    /   O peration     | Website:  https://openfoam.org
    \\  /    A nd           | Version:  9
     \\/     M anipulation  |
\*---------------------------------------------------------------------------*/
FoamFile
{
    format      ascii;
    class       volScalarField;
    location    "0";
    object      p_Im;
}
// * * * * * * * * * * * * * * * * * * * * * * * * * * * * * * * * * * * * * //

dimensions      [1 -1 -2 0 0 0 0];

internalField   uniform 1e-6;

boundaryField
{
    "(hot-top|graphite|mould|water-film|sonotrode-wall|fixed)"
    {
        type            zeroGradient;
    }

    sonotrode
    {
        type            fixedGradient;
        gradient        uniform 4e7;
    }

    ram
    {
        type            fixedValue;
        value           $internalField;
    }

    free-surface
    {
        type            fixedValue;
        value           $internalField;
    }

    symmetric
    {
        type            symmetry;
    }
}

// ************************************************************************* //
